
---------- Begin Simulation Statistics ----------
simSeconds                                   0.993371                       # Number of seconds simulated (Second)
simTicks                                 993370560500                       # Number of ticks simulated (Tick)
finalTick                                993370560500                       # Number of ticks from beginning of simulation (restored from checkpoints and never reset) (Tick)
simFreq                                  1000000000000                       # The number of ticks per simulated second ((Tick/Second))
hostSeconds                                    655.47                       # Real time elapsed on the host (Second)
hostTickRate                               1515498132                       # The number of ticks simulated per host second (ticks/s) ((Tick/Second))
hostMemory                                    4407520                       # Number of bytes of host memory used (Byte)
simInsts                                    756863049                       # Number of instructions simulated (Count)
simOps                                     1518769666                       # Number of ops (including micro ops) simulated (Count)
hostInstRate                                  1154679                       # Simulator instruction rate (inst/s) ((Count/Second))
hostOpRate                                    2317053                       # Simulator op (including micro ops) rate (op/s) ((Count/Second))
system.clk_domain.clock                          1000                       # Clock period in ticks (Tick)
system.cpu.numCycles                       1986741121                       # Number of cpu cycles simulated (Cycle)
system.cpu.cpi                               2.624965                       # CPI: cycles per instruction (core level) ((Cycle/Count))
system.cpu.ipc                               0.380957                       # IPC: instructions per cycle (core level) ((Count/Cycle))
system.cpu.numWorkItemsStarted                      0                       # Number of work items this cpu started (Count)
system.cpu.numWorkItemsCompleted                    0                       # Number of work items this cpu completed (Count)
system.cpu.commitStats0.numInsts            756863929                       # Number of instructions committed (thread level) (Count)
system.cpu.commitStats0.numOps             1518770552                       # Number of ops (including micro ops) committed (thread level) (Count)
system.cpu.commitStats0.numInstsNotNOP              0                       # Number of instructions committed excluding NOPs or prefetches (Count)
system.cpu.commitStats0.numOpsNotNOP                0                       # Number of Ops (including micro ops) Simulated (Count)
system.cpu.commitStats0.cpi                  2.624965                       # CPI: cycles per instruction (thread level) ((Cycle/Count))
system.cpu.commitStats0.ipc                  0.380957                       # IPC: instructions per cycle (thread level) ((Count/Cycle))
system.cpu.commitStats0.numMemRefs                  0                       # Number of memory references committed (Count)
system.cpu.commitStats0.numFpInsts           22529248                       # Number of float instructions (Count)
system.cpu.commitStats0.numIntInsts        1500667699                       # Number of integer instructions (Count)
system.cpu.commitStats0.numLoadInsts         81341058                       # Number of load instructions (Count)
system.cpu.commitStats0.numStoreInsts        14432132                       # Number of store instructions (Count)
system.cpu.commitStats0.numVecInsts                 0                       # Number of vector instructions (Count)
system.cpu.commitStats0.committedInstType::No_OpClass      1636010      0.11%      0.11% # Class of committed instruction. (Count)
system.cpu.commitStats0.committedInstType::IntAlu   1408478863     92.74%     92.85% # Class of committed instruction. (Count)
system.cpu.commitStats0.committedInstType::IntMult           88      0.00%     92.85% # Class of committed instruction. (Count)
system.cpu.commitStats0.committedInstType::IntDiv          161      0.00%     92.85% # Class of committed instruction. (Count)
system.cpu.commitStats0.committedInstType::FloatAdd      3135482      0.21%     93.05% # Class of committed instruction. (Count)
system.cpu.commitStats0.committedInstType::FloatCmp            0      0.00%     93.05% # Class of committed instruction. (Count)
system.cpu.commitStats0.committedInstType::FloatCvt            0      0.00%     93.05% # Class of committed instruction. (Count)
system.cpu.commitStats0.committedInstType::FloatMult            0      0.00%     93.05% # Class of committed instruction. (Count)
system.cpu.commitStats0.committedInstType::FloatMultAcc            0      0.00%     93.05% # Class of committed instruction. (Count)
system.cpu.commitStats0.committedInstType::FloatDiv            0      0.00%     93.05% # Class of committed instruction. (Count)
system.cpu.commitStats0.committedInstType::FloatMisc            0      0.00%     93.05% # Class of committed instruction. (Count)
system.cpu.commitStats0.committedInstType::FloatSqrt            0      0.00%     93.05% # Class of committed instruction. (Count)
system.cpu.commitStats0.committedInstType::SimdAdd          266      0.00%     93.05% # Class of committed instruction. (Count)
system.cpu.commitStats0.committedInstType::SimdAddAcc            0      0.00%     93.05% # Class of committed instruction. (Count)
system.cpu.commitStats0.committedInstType::SimdAlu      1857659      0.12%     93.17% # Class of committed instruction. (Count)
system.cpu.commitStats0.committedInstType::SimdCmp            0      0.00%     93.17% # Class of committed instruction. (Count)
system.cpu.commitStats0.committedInstType::SimdCvt         1842      0.00%     93.17% # Class of committed instruction. (Count)
system.cpu.commitStats0.committedInstType::SimdMisc      1249417      0.08%     93.26% # Class of committed instruction. (Count)
system.cpu.commitStats0.committedInstType::SimdMult            0      0.00%     93.26% # Class of committed instruction. (Count)
system.cpu.commitStats0.committedInstType::SimdMultAcc            0      0.00%     93.26% # Class of committed instruction. (Count)
system.cpu.commitStats0.committedInstType::SimdMatMultAcc            0      0.00%     93.26% # Class of committed instruction. (Count)
system.cpu.commitStats0.committedInstType::SimdShift            3      0.00%     93.26% # Class of committed instruction. (Count)
system.cpu.commitStats0.committedInstType::SimdShiftAcc            0      0.00%     93.26% # Class of committed instruction. (Count)
system.cpu.commitStats0.committedInstType::SimdDiv            0      0.00%     93.26% # Class of committed instruction. (Count)
system.cpu.commitStats0.committedInstType::SimdSqrt            0      0.00%     93.26% # Class of committed instruction. (Count)
system.cpu.commitStats0.committedInstType::SimdFloatAdd      2052925      0.14%     93.39% # Class of committed instruction. (Count)
system.cpu.commitStats0.committedInstType::SimdFloatAlu            0      0.00%     93.39% # Class of committed instruction. (Count)
system.cpu.commitStats0.committedInstType::SimdFloatCmp            0      0.00%     93.39% # Class of committed instruction. (Count)
system.cpu.commitStats0.committedInstType::SimdFloatCvt      3228678      0.21%     93.60% # Class of committed instruction. (Count)
system.cpu.commitStats0.committedInstType::SimdFloatDiv       167063      0.01%     93.62% # Class of committed instruction. (Count)
system.cpu.commitStats0.committedInstType::SimdFloatMisc            0      0.00%     93.62% # Class of committed instruction. (Count)
system.cpu.commitStats0.committedInstType::SimdFloatMult      1021843      0.07%     93.68% # Class of committed instruction. (Count)
system.cpu.commitStats0.committedInstType::SimdFloatMultAcc            0      0.00%     93.68% # Class of committed instruction. (Count)
system.cpu.commitStats0.committedInstType::SimdFloatMatMultAcc            0      0.00%     93.68% # Class of committed instruction. (Count)
system.cpu.commitStats0.committedInstType::SimdFloatSqrt       167062      0.01%     93.69% # Class of committed instruction. (Count)
system.cpu.commitStats0.committedInstType::SimdReduceAdd            0      0.00%     93.69% # Class of committed instruction. (Count)
system.cpu.commitStats0.committedInstType::SimdReduceAlu            0      0.00%     93.69% # Class of committed instruction. (Count)
system.cpu.commitStats0.committedInstType::SimdReduceCmp            0      0.00%     93.69% # Class of committed instruction. (Count)
system.cpu.commitStats0.committedInstType::SimdFloatReduceAdd            0      0.00%     93.69% # Class of committed instruction. (Count)
system.cpu.commitStats0.committedInstType::SimdFloatReduceCmp            0      0.00%     93.69% # Class of committed instruction. (Count)
system.cpu.commitStats0.committedInstType::SimdAes            0      0.00%     93.69% # Class of committed instruction. (Count)
system.cpu.commitStats0.committedInstType::SimdAesMix            0      0.00%     93.69% # Class of committed instruction. (Count)
system.cpu.commitStats0.committedInstType::SimdSha1Hash            0      0.00%     93.69% # Class of committed instruction. (Count)
system.cpu.commitStats0.committedInstType::SimdSha1Hash2            0      0.00%     93.69% # Class of committed instruction. (Count)
system.cpu.commitStats0.committedInstType::SimdSha256Hash            0      0.00%     93.69% # Class of committed instruction. (Count)
system.cpu.commitStats0.committedInstType::SimdSha256Hash2            0      0.00%     93.69% # Class of committed instruction. (Count)
system.cpu.commitStats0.committedInstType::SimdShaSigma2            0      0.00%     93.69% # Class of committed instruction. (Count)
system.cpu.commitStats0.committedInstType::SimdShaSigma3            0      0.00%     93.69% # Class of committed instruction. (Count)
system.cpu.commitStats0.committedInstType::SimdPredAlu            0      0.00%     93.69% # Class of committed instruction. (Count)
system.cpu.commitStats0.committedInstType::Matrix            0      0.00%     93.69% # Class of committed instruction. (Count)
system.cpu.commitStats0.committedInstType::MatrixMov            0      0.00%     93.69% # Class of committed instruction. (Count)
system.cpu.commitStats0.committedInstType::MatrixOP            0      0.00%     93.69% # Class of committed instruction. (Count)
system.cpu.commitStats0.committedInstType::MemRead     76947428      5.07%     98.76% # Class of committed instruction. (Count)
system.cpu.commitStats0.committedInstType::MemWrite     13408267      0.88%     99.64% # Class of committed instruction. (Count)
system.cpu.commitStats0.committedInstType::FloatMemRead      4393630      0.29%     99.93% # Class of committed instruction. (Count)
system.cpu.commitStats0.committedInstType::FloatMemWrite      1023865      0.07%    100.00% # Class of committed instruction. (Count)
system.cpu.commitStats0.committedInstType::IprAccess            0      0.00%    100.00% # Class of committed instruction. (Count)
system.cpu.commitStats0.committedInstType::InstPrefetch            0      0.00%    100.00% # Class of committed instruction. (Count)
system.cpu.commitStats0.committedInstType::SimdUnitStrideLoad            0      0.00%    100.00% # Class of committed instruction. (Count)
system.cpu.commitStats0.committedInstType::SimdUnitStrideStore            0      0.00%    100.00% # Class of committed instruction. (Count)
system.cpu.commitStats0.committedInstType::SimdUnitStrideMaskLoad            0      0.00%    100.00% # Class of committed instruction. (Count)
system.cpu.commitStats0.committedInstType::SimdUnitStrideMaskStore            0      0.00%    100.00% # Class of committed instruction. (Count)
system.cpu.commitStats0.committedInstType::SimdStridedLoad            0      0.00%    100.00% # Class of committed instruction. (Count)
system.cpu.commitStats0.committedInstType::SimdStridedStore            0      0.00%    100.00% # Class of committed instruction. (Count)
system.cpu.commitStats0.committedInstType::SimdIndexedLoad            0      0.00%    100.00% # Class of committed instruction. (Count)
system.cpu.commitStats0.committedInstType::SimdIndexedStore            0      0.00%    100.00% # Class of committed instruction. (Count)
system.cpu.commitStats0.committedInstType::SimdWholeRegisterLoad            0      0.00%    100.00% # Class of committed instruction. (Count)
system.cpu.commitStats0.committedInstType::SimdWholeRegisterStore            0      0.00%    100.00% # Class of committed instruction. (Count)
system.cpu.commitStats0.committedInstType::SimdUnitStrideFaultOnlyFirstLoad            0      0.00%    100.00% # Class of committed instruction. (Count)
system.cpu.commitStats0.committedInstType::SimdUnitStrideSegmentedLoad            0      0.00%    100.00% # Class of committed instruction. (Count)
system.cpu.commitStats0.committedInstType::SimdUnitStrideSegmentedStore            0      0.00%    100.00% # Class of committed instruction. (Count)
system.cpu.commitStats0.committedInstType::SimdExt            0      0.00%    100.00% # Class of committed instruction. (Count)
system.cpu.commitStats0.committedInstType::SimdFloatExt            0      0.00%    100.00% # Class of committed instruction. (Count)
system.cpu.commitStats0.committedInstType::SimdConfig            0      0.00%    100.00% # Class of committed instruction. (Count)
system.cpu.commitStats0.committedInstType::total   1518770552                       # Class of committed instruction. (Count)
system.cpu.commitStats0.committedControl::IsControl    225199530                       # Class of control type instructions committed (Count)
system.cpu.commitStats0.committedControl::IsDirectControl    223527835                       # Class of control type instructions committed (Count)
system.cpu.commitStats0.committedControl::IsIndirectControl      1671695                       # Class of control type instructions committed (Count)
system.cpu.commitStats0.committedControl::IsCondControl    217919368                       # Class of control type instructions committed (Count)
system.cpu.commitStats0.committedControl::IsUncondControl      7280162                       # Class of control type instructions committed (Count)
system.cpu.commitStats0.committedControl::IsCall      1655127                       # Class of control type instructions committed (Count)
system.cpu.commitStats0.committedControl::IsReturn      1655122                       # Class of control type instructions committed (Count)
system.cpu.dcache.demandHits::cpu.data       92238409                       # number of demand (read+write) hits (Count)
system.cpu.dcache.demandHits::total          92238409                       # number of demand (read+write) hits (Count)
system.cpu.dcache.overallHits::cpu.data      92238409                       # number of overall hits (Count)
system.cpu.dcache.overallHits::total         92238409                       # number of overall hits (Count)
system.cpu.dcache.demandMisses::cpu.data      3534885                       # number of demand (read+write) misses (Count)
system.cpu.dcache.demandMisses::total         3534885                       # number of demand (read+write) misses (Count)
system.cpu.dcache.overallMisses::cpu.data      3534885                       # number of overall misses (Count)
system.cpu.dcache.overallMisses::total        3534885                       # number of overall misses (Count)
system.cpu.dcache.demandMissLatency::cpu.data  51180653500                       # number of demand (read+write) miss ticks (Tick)
system.cpu.dcache.demandMissLatency::total  51180653500                       # number of demand (read+write) miss ticks (Tick)
system.cpu.dcache.overallMissLatency::cpu.data  51180653500                       # number of overall miss ticks (Tick)
system.cpu.dcache.overallMissLatency::total  51180653500                       # number of overall miss ticks (Tick)
system.cpu.dcache.demandAccesses::cpu.data     95773294                       # number of demand (read+write) accesses (Count)
system.cpu.dcache.demandAccesses::total      95773294                       # number of demand (read+write) accesses (Count)
system.cpu.dcache.overallAccesses::cpu.data     95773294                       # number of overall (read+write) accesses (Count)
system.cpu.dcache.overallAccesses::total     95773294                       # number of overall (read+write) accesses (Count)
system.cpu.dcache.demandMissRate::cpu.data     0.036909                       # miss rate for demand accesses (Ratio)
system.cpu.dcache.demandMissRate::total      0.036909                       # miss rate for demand accesses (Ratio)
system.cpu.dcache.overallMissRate::cpu.data     0.036909                       # miss rate for overall accesses (Ratio)
system.cpu.dcache.overallMissRate::total     0.036909                       # miss rate for overall accesses (Ratio)
system.cpu.dcache.demandAvgMissLatency::cpu.data 14478.732264                       # average overall miss latency in ticks ((Tick/Count))
system.cpu.dcache.demandAvgMissLatency::total 14478.732264                       # average overall miss latency in ticks ((Tick/Count))
system.cpu.dcache.overallAvgMissLatency::cpu.data 14478.732264                       # average overall miss latency ((Tick/Count))
system.cpu.dcache.overallAvgMissLatency::total 14478.732264                       # average overall miss latency ((Tick/Count))
system.cpu.dcache.blockedCycles::no_mshrs            0                       # number of cycles access was blocked (Cycle)
system.cpu.dcache.blockedCycles::no_targets            0                       # number of cycles access was blocked (Cycle)
system.cpu.dcache.blockedCauses::no_mshrs            0                       # number of times access was blocked (Count)
system.cpu.dcache.blockedCauses::no_targets            0                       # number of times access was blocked (Count)
system.cpu.dcache.avgBlocked::no_mshrs            nan                       # average number of cycles each access was blocked ((Cycle/Count))
system.cpu.dcache.avgBlocked::no_targets          nan                       # average number of cycles each access was blocked ((Cycle/Count))
system.cpu.dcache.writebacks::writebacks      2063646                       # number of writebacks (Count)
system.cpu.dcache.writebacks::total           2063646                       # number of writebacks (Count)
system.cpu.dcache.demandMshrMisses::cpu.data      3534885                       # number of demand (read+write) MSHR misses (Count)
system.cpu.dcache.demandMshrMisses::total      3534885                       # number of demand (read+write) MSHR misses (Count)
system.cpu.dcache.overallMshrMisses::cpu.data      3534885                       # number of overall MSHR misses (Count)
system.cpu.dcache.overallMshrMisses::total      3534885                       # number of overall MSHR misses (Count)
system.cpu.dcache.demandMshrMissLatency::cpu.data  47645768500                       # number of demand (read+write) MSHR miss ticks (Tick)
system.cpu.dcache.demandMshrMissLatency::total  47645768500                       # number of demand (read+write) MSHR miss ticks (Tick)
system.cpu.dcache.overallMshrMissLatency::cpu.data  47645768500                       # number of overall MSHR miss ticks (Tick)
system.cpu.dcache.overallMshrMissLatency::total  47645768500                       # number of overall MSHR miss ticks (Tick)
system.cpu.dcache.demandMshrMissRate::cpu.data     0.036909                       # mshr miss ratio for demand accesses (Ratio)
system.cpu.dcache.demandMshrMissRate::total     0.036909                       # mshr miss ratio for demand accesses (Ratio)
system.cpu.dcache.overallMshrMissRate::cpu.data     0.036909                       # mshr miss ratio for overall accesses (Ratio)
system.cpu.dcache.overallMshrMissRate::total     0.036909                       # mshr miss ratio for overall accesses (Ratio)
system.cpu.dcache.demandAvgMshrMissLatency::cpu.data 13478.732264                       # average overall mshr miss latency ((Tick/Count))
system.cpu.dcache.demandAvgMshrMissLatency::total 13478.732264                       # average overall mshr miss latency ((Tick/Count))
system.cpu.dcache.overallAvgMshrMissLatency::cpu.data 13478.732264                       # average overall mshr miss latency ((Tick/Count))
system.cpu.dcache.overallAvgMshrMissLatency::total 13478.732264                       # average overall mshr miss latency ((Tick/Count))
system.cpu.dcache.replacements                3534636                       # number of replacements (Count)
system.cpu.dcache.LockedRMWReadReq.hits::cpu.data          196                       # number of LockedRMWReadReq hits (Count)
system.cpu.dcache.LockedRMWReadReq.hits::total          196                       # number of LockedRMWReadReq hits (Count)
system.cpu.dcache.LockedRMWReadReq.misses::cpu.data            7                       # number of LockedRMWReadReq misses (Count)
system.cpu.dcache.LockedRMWReadReq.misses::total            7                       # number of LockedRMWReadReq misses (Count)
system.cpu.dcache.LockedRMWReadReq.missLatency::cpu.data       486000                       # number of LockedRMWReadReq miss ticks (Tick)
system.cpu.dcache.LockedRMWReadReq.missLatency::total       486000                       # number of LockedRMWReadReq miss ticks (Tick)
system.cpu.dcache.LockedRMWReadReq.accesses::cpu.data          203                       # number of LockedRMWReadReq accesses(hits+misses) (Count)
system.cpu.dcache.LockedRMWReadReq.accesses::total          203                       # number of LockedRMWReadReq accesses(hits+misses) (Count)
system.cpu.dcache.LockedRMWReadReq.missRate::cpu.data     0.034483                       # miss rate for LockedRMWReadReq accesses (Ratio)
system.cpu.dcache.LockedRMWReadReq.missRate::total     0.034483                       # miss rate for LockedRMWReadReq accesses (Ratio)
system.cpu.dcache.LockedRMWReadReq.avgMissLatency::cpu.data 69428.571429                       # average LockedRMWReadReq miss latency ((Tick/Count))
system.cpu.dcache.LockedRMWReadReq.avgMissLatency::total 69428.571429                       # average LockedRMWReadReq miss latency ((Tick/Count))
system.cpu.dcache.LockedRMWReadReq.mshrMisses::cpu.data            7                       # number of LockedRMWReadReq MSHR misses (Count)
system.cpu.dcache.LockedRMWReadReq.mshrMisses::total            7                       # number of LockedRMWReadReq MSHR misses (Count)
system.cpu.dcache.LockedRMWReadReq.mshrMissLatency::cpu.data      1161000                       # number of LockedRMWReadReq MSHR miss ticks (Tick)
system.cpu.dcache.LockedRMWReadReq.mshrMissLatency::total      1161000                       # number of LockedRMWReadReq MSHR miss ticks (Tick)
system.cpu.dcache.LockedRMWReadReq.mshrMissRate::cpu.data     0.034483                       # mshr miss rate for LockedRMWReadReq accesses (Ratio)
system.cpu.dcache.LockedRMWReadReq.mshrMissRate::total     0.034483                       # mshr miss rate for LockedRMWReadReq accesses (Ratio)
system.cpu.dcache.LockedRMWReadReq.avgMshrMissLatency::cpu.data 165857.142857                       # average LockedRMWReadReq mshr miss latency ((Tick/Count))
system.cpu.dcache.LockedRMWReadReq.avgMshrMissLatency::total 165857.142857                       # average LockedRMWReadReq mshr miss latency ((Tick/Count))
system.cpu.dcache.LockedRMWWriteReq.hits::cpu.data          203                       # number of LockedRMWWriteReq hits (Count)
system.cpu.dcache.LockedRMWWriteReq.hits::total          203                       # number of LockedRMWWriteReq hits (Count)
system.cpu.dcache.LockedRMWWriteReq.accesses::cpu.data          203                       # number of LockedRMWWriteReq accesses(hits+misses) (Count)
system.cpu.dcache.LockedRMWWriteReq.accesses::total          203                       # number of LockedRMWWriteReq accesses(hits+misses) (Count)
system.cpu.dcache.ReadReq.hits::cpu.data     77946504                       # number of ReadReq hits (Count)
system.cpu.dcache.ReadReq.hits::total        77946504                       # number of ReadReq hits (Count)
system.cpu.dcache.ReadReq.misses::cpu.data      3395367                       # number of ReadReq misses (Count)
system.cpu.dcache.ReadReq.misses::total       3395367                       # number of ReadReq misses (Count)
system.cpu.dcache.ReadReq.missLatency::cpu.data  45974926500                       # number of ReadReq miss ticks (Tick)
system.cpu.dcache.ReadReq.missLatency::total  45974926500                       # number of ReadReq miss ticks (Tick)
system.cpu.dcache.ReadReq.accesses::cpu.data     81341871                       # number of ReadReq accesses(hits+misses) (Count)
system.cpu.dcache.ReadReq.accesses::total     81341871                       # number of ReadReq accesses(hits+misses) (Count)
system.cpu.dcache.ReadReq.missRate::cpu.data     0.041742                       # miss rate for ReadReq accesses (Ratio)
system.cpu.dcache.ReadReq.missRate::total     0.041742                       # miss rate for ReadReq accesses (Ratio)
system.cpu.dcache.ReadReq.avgMissLatency::cpu.data 13540.488112                       # average ReadReq miss latency ((Tick/Count))
system.cpu.dcache.ReadReq.avgMissLatency::total 13540.488112                       # average ReadReq miss latency ((Tick/Count))
system.cpu.dcache.ReadReq.mshrMisses::cpu.data      3395367                       # number of ReadReq MSHR misses (Count)
system.cpu.dcache.ReadReq.mshrMisses::total      3395367                       # number of ReadReq MSHR misses (Count)
system.cpu.dcache.ReadReq.mshrMissLatency::cpu.data  42579559500                       # number of ReadReq MSHR miss ticks (Tick)
system.cpu.dcache.ReadReq.mshrMissLatency::total  42579559500                       # number of ReadReq MSHR miss ticks (Tick)
system.cpu.dcache.ReadReq.mshrMissRate::cpu.data     0.041742                       # mshr miss rate for ReadReq accesses (Ratio)
system.cpu.dcache.ReadReq.mshrMissRate::total     0.041742                       # mshr miss rate for ReadReq accesses (Ratio)
system.cpu.dcache.ReadReq.avgMshrMissLatency::cpu.data 12540.488112                       # average ReadReq mshr miss latency ((Tick/Count))
system.cpu.dcache.ReadReq.avgMshrMissLatency::total 12540.488112                       # average ReadReq mshr miss latency ((Tick/Count))
system.cpu.dcache.WriteReq.hits::cpu.data     14291905                       # number of WriteReq hits (Count)
system.cpu.dcache.WriteReq.hits::total       14291905                       # number of WriteReq hits (Count)
system.cpu.dcache.WriteReq.misses::cpu.data       139518                       # number of WriteReq misses (Count)
system.cpu.dcache.WriteReq.misses::total       139518                       # number of WriteReq misses (Count)
system.cpu.dcache.WriteReq.missLatency::cpu.data   5205727000                       # number of WriteReq miss ticks (Tick)
system.cpu.dcache.WriteReq.missLatency::total   5205727000                       # number of WriteReq miss ticks (Tick)
system.cpu.dcache.WriteReq.accesses::cpu.data     14431423                       # number of WriteReq accesses(hits+misses) (Count)
system.cpu.dcache.WriteReq.accesses::total     14431423                       # number of WriteReq accesses(hits+misses) (Count)
system.cpu.dcache.WriteReq.missRate::cpu.data     0.009668                       # miss rate for WriteReq accesses (Ratio)
system.cpu.dcache.WriteReq.missRate::total     0.009668                       # miss rate for WriteReq accesses (Ratio)
system.cpu.dcache.WriteReq.avgMissLatency::cpu.data 37312.224946                       # average WriteReq miss latency ((Tick/Count))
system.cpu.dcache.WriteReq.avgMissLatency::total 37312.224946                       # average WriteReq miss latency ((Tick/Count))
system.cpu.dcache.WriteReq.mshrMisses::cpu.data       139518                       # number of WriteReq MSHR misses (Count)
system.cpu.dcache.WriteReq.mshrMisses::total       139518                       # number of WriteReq MSHR misses (Count)
system.cpu.dcache.WriteReq.mshrMissLatency::cpu.data   5066209000                       # number of WriteReq MSHR miss ticks (Tick)
system.cpu.dcache.WriteReq.mshrMissLatency::total   5066209000                       # number of WriteReq MSHR miss ticks (Tick)
system.cpu.dcache.WriteReq.mshrMissRate::cpu.data     0.009668                       # mshr miss rate for WriteReq accesses (Ratio)
system.cpu.dcache.WriteReq.mshrMissRate::total     0.009668                       # mshr miss rate for WriteReq accesses (Ratio)
system.cpu.dcache.WriteReq.avgMshrMissLatency::cpu.data 36312.224946                       # average WriteReq mshr miss latency ((Tick/Count))
system.cpu.dcache.WriteReq.avgMshrMissLatency::total 36312.224946                       # average WriteReq mshr miss latency ((Tick/Count))
system.cpu.dcache.power_state.pwrStateResidencyTicks::UNDEFINED 993370560500                       # Cumulative time (in ticks) in various power states (Tick)
system.cpu.dcache.tags.tagsInUse           255.986100                       # Average ticks per tags in use ((Tick/Count))
system.cpu.dcache.tags.totalRefs             95773700                       # Total number of references to valid blocks. (Count)
system.cpu.dcache.tags.sampledRefs            3534892                       # Sample count of references to valid blocks. (Count)
system.cpu.dcache.tags.avgRefs              27.093812                       # Average number of references to valid blocks. ((Count/Count))
system.cpu.dcache.tags.warmupTick              177500                       # The tick when the warmup percentage was hit. (Tick)
system.cpu.dcache.tags.occupancies::cpu.data   255.986100                       # Average occupied blocks per tick, per requestor ((Count/Tick))
system.cpu.dcache.tags.avgOccs::cpu.data     0.999946                       # Average percentage of cache occupancy ((Ratio/Tick))
system.cpu.dcache.tags.avgOccs::total        0.999946                       # Average percentage of cache occupancy ((Ratio/Tick))
system.cpu.dcache.tags.occupanciesTaskId::1024          256                       # Occupied blocks per task id (Count)
system.cpu.dcache.tags.ageTaskId_1024::0           22                       # Occupied blocks per task id, per block age (Count)
system.cpu.dcache.tags.ageTaskId_1024::1          190                       # Occupied blocks per task id, per block age (Count)
system.cpu.dcache.tags.ageTaskId_1024::2           38                       # Occupied blocks per task id, per block age (Count)
system.cpu.dcache.tags.ageTaskId_1024::3            6                       # Occupied blocks per task id, per block age (Count)
system.cpu.dcache.tags.ratioOccsTaskId::1024            1                       # Ratio of occupied blocks and all blocks, per task id (Ratio)
system.cpu.dcache.tags.tagAccesses          195082292                       # Number of tag accesses (Count)
system.cpu.dcache.tags.dataAccesses         195082292                       # Number of data accesses (Count)
system.cpu.dcache.tags.power_state.pwrStateResidencyTicks::UNDEFINED 993370560500                       # Cumulative time (in ticks) in various power states (Tick)
system.cpu.dtb_walker_cache.blockedCycles::no_mshrs            0                       # number of cycles access was blocked (Cycle)
system.cpu.dtb_walker_cache.blockedCycles::no_targets            0                       # number of cycles access was blocked (Cycle)
system.cpu.dtb_walker_cache.blockedCauses::no_mshrs            0                       # number of times access was blocked (Count)
system.cpu.dtb_walker_cache.blockedCauses::no_targets            0                       # number of times access was blocked (Count)
system.cpu.dtb_walker_cache.avgBlocked::no_mshrs          nan                       # average number of cycles each access was blocked ((Cycle/Count))
system.cpu.dtb_walker_cache.avgBlocked::no_targets          nan                       # average number of cycles each access was blocked ((Cycle/Count))
system.cpu.dtb_walker_cache.replacements            0                       # number of replacements (Count)
system.cpu.dtb_walker_cache.power_state.pwrStateResidencyTicks::UNDEFINED 993370560500                       # Cumulative time (in ticks) in various power states (Tick)
system.cpu.dtb_walker_cache.tags.tagsInUse            0                       # Average ticks per tags in use ((Tick/Count))
system.cpu.dtb_walker_cache.tags.totalRefs            0                       # Total number of references to valid blocks. (Count)
system.cpu.dtb_walker_cache.tags.sampledRefs            0                       # Sample count of references to valid blocks. (Count)
system.cpu.dtb_walker_cache.tags.avgRefs          nan                       # Average number of references to valid blocks. ((Count/Count))
system.cpu.dtb_walker_cache.tags.warmupTick            0                       # The tick when the warmup percentage was hit. (Tick)
system.cpu.dtb_walker_cache.tags.tagAccesses            0                       # Number of tag accesses (Count)
system.cpu.dtb_walker_cache.tags.dataAccesses            0                       # Number of data accesses (Count)
system.cpu.dtb_walker_cache.tags.power_state.pwrStateResidencyTicks::UNDEFINED 993370560500                       # Cumulative time (in ticks) in various power states (Tick)
system.cpu.exec_context.thread_0.numMatAluAccesses            0                       # Number of matrix alu accesses (Count)
system.cpu.exec_context.thread_0.numCallsReturns      3310249                       # Number of times a function call or return occured (Count)
system.cpu.exec_context.thread_0.numMatInsts            0                       # Number of matrix instructions (Count)
system.cpu.exec_context.thread_0.numIdleCycles     0.002000                       # Number of idle cycles (Cycle)
system.cpu.exec_context.thread_0.numBusyCycles 1986741120.998000                       # Number of busy cycles (Cycle)
system.cpu.exec_context.thread_0.notIdleFraction     1.000000                       # Percentage of non-idle cycles (Ratio)
system.cpu.exec_context.thread_0.idleFraction     0.000000                       # Percentage of idle cycles (Ratio)
system.cpu.executeStats0.numInsts                   0                       # Number of executed instructions (Count)
system.cpu.executeStats0.numNop                     0                       # Number of nop insts executed (Count)
system.cpu.executeStats0.numBranches                0                       # Number of branches executed (Count)
system.cpu.executeStats0.numLoadInsts               0                       # Number of load instructions executed (Count)
system.cpu.executeStats0.numStoreInsts       95773190                       # Number of stores executed (Count)
system.cpu.executeStats0.instRate                   0                       # Inst execution rate ((Count/Cycle))
system.cpu.executeStats0.numFpAluAccesses     22529248                       # Number of float alu accesses (Count)
system.cpu.executeStats0.numFpRegReads       31770049                       # Number of times the floating registers were read (Count)
system.cpu.executeStats0.numFpRegWrites      18720197                       # Number of times the floating registers were written (Count)
system.cpu.executeStats0.numIntAluAccesses   1500667699                       # Number of integer alu accesses (Count)
system.cpu.executeStats0.numIntRegReads    1615863332                       # Number of times the integer registers were read (Count)
system.cpu.executeStats0.numIntRegWrites   1040005293                       # Number of times the integer registers were written (Count)
system.cpu.executeStats0.numMemRefs          95773190                       # Number of memory refs (Count)
system.cpu.executeStats0.numMiscRegReads    547479323                       # Number of times the Misc registers were read (Count)
system.cpu.executeStats0.numVecAluAccesses            0                       # Number of vector alu accesses (Count)
system.cpu.executeStats0.numDiscardedOps            0                       # Number of ops (including micro ops) which were discarded before commit (Count)
system.cpu.fetchStats0.numInsts             756863929                       # Number of instructions fetched (thread level) (Count)
system.cpu.fetchStats0.numOps              1518770552                       # Number of ops (including micro ops) fetched (thread level) (Count)
system.cpu.fetchStats0.fetchRate             0.380957                       # Number of inst fetches per cycle ((Count/Cycle))
system.cpu.fetchStats0.numBranches          225199530                       # Number of branches fetched (Count)
system.cpu.fetchStats0.branchRate            0.113351                       # Number of branch fetches per cycle (Ratio)
system.cpu.fetchStats0.numFetchSuspends             0                       # Number of times Execute suspended instruction fetching (Count)
system.cpu.icache.demandHits::cpu.inst      844932843                       # number of demand (read+write) hits (Count)
system.cpu.icache.demandHits::total         844932843                       # number of demand (read+write) hits (Count)
system.cpu.icache.overallHits::cpu.inst     844932843                       # number of overall hits (Count)
system.cpu.icache.overallHits::total        844932843                       # number of overall hits (Count)
system.cpu.icache.demandMisses::cpu.inst       374738                       # number of demand (read+write) misses (Count)
system.cpu.icache.demandMisses::total          374738                       # number of demand (read+write) misses (Count)
system.cpu.icache.overallMisses::cpu.inst       374738                       # number of overall misses (Count)
system.cpu.icache.overallMisses::total         374738                       # number of overall misses (Count)
system.cpu.icache.demandMissLatency::cpu.inst   5018568500                       # number of demand (read+write) miss ticks (Tick)
system.cpu.icache.demandMissLatency::total   5018568500                       # number of demand (read+write) miss ticks (Tick)
system.cpu.icache.overallMissLatency::cpu.inst   5018568500                       # number of overall miss ticks (Tick)
system.cpu.icache.overallMissLatency::total   5018568500                       # number of overall miss ticks (Tick)
system.cpu.icache.demandAccesses::cpu.inst    845307581                       # number of demand (read+write) accesses (Count)
system.cpu.icache.demandAccesses::total     845307581                       # number of demand (read+write) accesses (Count)
system.cpu.icache.overallAccesses::cpu.inst    845307581                       # number of overall (read+write) accesses (Count)
system.cpu.icache.overallAccesses::total    845307581                       # number of overall (read+write) accesses (Count)
system.cpu.icache.demandMissRate::cpu.inst     0.000443                       # miss rate for demand accesses (Ratio)
system.cpu.icache.demandMissRate::total      0.000443                       # miss rate for demand accesses (Ratio)
system.cpu.icache.overallMissRate::cpu.inst     0.000443                       # miss rate for overall accesses (Ratio)
system.cpu.icache.overallMissRate::total     0.000443                       # miss rate for overall accesses (Ratio)
system.cpu.icache.demandAvgMissLatency::cpu.inst 13392.206021                       # average overall miss latency in ticks ((Tick/Count))
system.cpu.icache.demandAvgMissLatency::total 13392.206021                       # average overall miss latency in ticks ((Tick/Count))
system.cpu.icache.overallAvgMissLatency::cpu.inst 13392.206021                       # average overall miss latency ((Tick/Count))
system.cpu.icache.overallAvgMissLatency::total 13392.206021                       # average overall miss latency ((Tick/Count))
system.cpu.icache.blockedCycles::no_mshrs            0                       # number of cycles access was blocked (Cycle)
system.cpu.icache.blockedCycles::no_targets            0                       # number of cycles access was blocked (Cycle)
system.cpu.icache.blockedCauses::no_mshrs            0                       # number of times access was blocked (Count)
system.cpu.icache.blockedCauses::no_targets            0                       # number of times access was blocked (Count)
system.cpu.icache.avgBlocked::no_mshrs            nan                       # average number of cycles each access was blocked ((Cycle/Count))
system.cpu.icache.avgBlocked::no_targets          nan                       # average number of cycles each access was blocked ((Cycle/Count))
system.cpu.icache.writebacks::writebacks       374482                       # number of writebacks (Count)
system.cpu.icache.writebacks::total            374482                       # number of writebacks (Count)
system.cpu.icache.demandMshrMisses::cpu.inst       374738                       # number of demand (read+write) MSHR misses (Count)
system.cpu.icache.demandMshrMisses::total       374738                       # number of demand (read+write) MSHR misses (Count)
system.cpu.icache.overallMshrMisses::cpu.inst       374738                       # number of overall MSHR misses (Count)
system.cpu.icache.overallMshrMisses::total       374738                       # number of overall MSHR misses (Count)
system.cpu.icache.demandMshrMissLatency::cpu.inst   4643830500                       # number of demand (read+write) MSHR miss ticks (Tick)
system.cpu.icache.demandMshrMissLatency::total   4643830500                       # number of demand (read+write) MSHR miss ticks (Tick)
system.cpu.icache.overallMshrMissLatency::cpu.inst   4643830500                       # number of overall MSHR miss ticks (Tick)
system.cpu.icache.overallMshrMissLatency::total   4643830500                       # number of overall MSHR miss ticks (Tick)
system.cpu.icache.demandMshrMissRate::cpu.inst     0.000443                       # mshr miss ratio for demand accesses (Ratio)
system.cpu.icache.demandMshrMissRate::total     0.000443                       # mshr miss ratio for demand accesses (Ratio)
system.cpu.icache.overallMshrMissRate::cpu.inst     0.000443                       # mshr miss ratio for overall accesses (Ratio)
system.cpu.icache.overallMshrMissRate::total     0.000443                       # mshr miss ratio for overall accesses (Ratio)
system.cpu.icache.demandAvgMshrMissLatency::cpu.inst 12392.206021                       # average overall mshr miss latency ((Tick/Count))
system.cpu.icache.demandAvgMshrMissLatency::total 12392.206021                       # average overall mshr miss latency ((Tick/Count))
system.cpu.icache.overallAvgMshrMissLatency::cpu.inst 12392.206021                       # average overall mshr miss latency ((Tick/Count))
system.cpu.icache.overallAvgMshrMissLatency::total 12392.206021                       # average overall mshr miss latency ((Tick/Count))
system.cpu.icache.replacements                 374482                       # number of replacements (Count)
system.cpu.icache.ReadReq.hits::cpu.inst    844932843                       # number of ReadReq hits (Count)
system.cpu.icache.ReadReq.hits::total       844932843                       # number of ReadReq hits (Count)
system.cpu.icache.ReadReq.misses::cpu.inst       374738                       # number of ReadReq misses (Count)
system.cpu.icache.ReadReq.misses::total        374738                       # number of ReadReq misses (Count)
system.cpu.icache.ReadReq.missLatency::cpu.inst   5018568500                       # number of ReadReq miss ticks (Tick)
system.cpu.icache.ReadReq.missLatency::total   5018568500                       # number of ReadReq miss ticks (Tick)
system.cpu.icache.ReadReq.accesses::cpu.inst    845307581                       # number of ReadReq accesses(hits+misses) (Count)
system.cpu.icache.ReadReq.accesses::total    845307581                       # number of ReadReq accesses(hits+misses) (Count)
system.cpu.icache.ReadReq.missRate::cpu.inst     0.000443                       # miss rate for ReadReq accesses (Ratio)
system.cpu.icache.ReadReq.missRate::total     0.000443                       # miss rate for ReadReq accesses (Ratio)
system.cpu.icache.ReadReq.avgMissLatency::cpu.inst 13392.206021                       # average ReadReq miss latency ((Tick/Count))
system.cpu.icache.ReadReq.avgMissLatency::total 13392.206021                       # average ReadReq miss latency ((Tick/Count))
system.cpu.icache.ReadReq.mshrMisses::cpu.inst       374738                       # number of ReadReq MSHR misses (Count)
system.cpu.icache.ReadReq.mshrMisses::total       374738                       # number of ReadReq MSHR misses (Count)
system.cpu.icache.ReadReq.mshrMissLatency::cpu.inst   4643830500                       # number of ReadReq MSHR miss ticks (Tick)
system.cpu.icache.ReadReq.mshrMissLatency::total   4643830500                       # number of ReadReq MSHR miss ticks (Tick)
system.cpu.icache.ReadReq.mshrMissRate::cpu.inst     0.000443                       # mshr miss rate for ReadReq accesses (Ratio)
system.cpu.icache.ReadReq.mshrMissRate::total     0.000443                       # mshr miss rate for ReadReq accesses (Ratio)
system.cpu.icache.ReadReq.avgMshrMissLatency::cpu.inst 12392.206021                       # average ReadReq mshr miss latency ((Tick/Count))
system.cpu.icache.ReadReq.avgMshrMissLatency::total 12392.206021                       # average ReadReq mshr miss latency ((Tick/Count))
system.cpu.icache.power_state.pwrStateResidencyTicks::UNDEFINED 993370560500                       # Cumulative time (in ticks) in various power states (Tick)
system.cpu.icache.tags.tagsInUse           255.992638                       # Average ticks per tags in use ((Tick/Count))
system.cpu.icache.tags.totalRefs            845307581                       # Total number of references to valid blocks. (Count)
system.cpu.icache.tags.sampledRefs             374738                       # Sample count of references to valid blocks. (Count)
system.cpu.icache.tags.avgRefs            2255.729552                       # Average number of references to valid blocks. ((Count/Count))
system.cpu.icache.tags.warmupTick               87500                       # The tick when the warmup percentage was hit. (Tick)
system.cpu.icache.tags.occupancies::cpu.inst   255.992638                       # Average occupied blocks per tick, per requestor ((Count/Tick))
system.cpu.icache.tags.avgOccs::cpu.inst     0.999971                       # Average percentage of cache occupancy ((Ratio/Tick))
system.cpu.icache.tags.avgOccs::total        0.999971                       # Average percentage of cache occupancy ((Ratio/Tick))
system.cpu.icache.tags.occupanciesTaskId::1024          256                       # Occupied blocks per task id (Count)
system.cpu.icache.tags.ageTaskId_1024::0           60                       # Occupied blocks per task id, per block age (Count)
system.cpu.icache.tags.ageTaskId_1024::1           74                       # Occupied blocks per task id, per block age (Count)
system.cpu.icache.tags.ageTaskId_1024::2           87                       # Occupied blocks per task id, per block age (Count)
system.cpu.icache.tags.ageTaskId_1024::3            4                       # Occupied blocks per task id, per block age (Count)
system.cpu.icache.tags.ageTaskId_1024::4           31                       # Occupied blocks per task id, per block age (Count)
system.cpu.icache.tags.ratioOccsTaskId::1024            1                       # Ratio of occupied blocks and all blocks, per task id (Ratio)
system.cpu.icache.tags.tagAccesses         1690989900                       # Number of tag accesses (Count)
system.cpu.icache.tags.dataAccesses        1690989900                       # Number of data accesses (Count)
system.cpu.icache.tags.power_state.pwrStateResidencyTicks::UNDEFINED 993370560500                       # Cumulative time (in ticks) in various power states (Tick)
system.cpu.interrupts.clk_domain.clock           8000                       # Clock period in ticks (Tick)
system.cpu.itb_walker_cache.blockedCycles::no_mshrs            0                       # number of cycles access was blocked (Cycle)
system.cpu.itb_walker_cache.blockedCycles::no_targets            0                       # number of cycles access was blocked (Cycle)
system.cpu.itb_walker_cache.blockedCauses::no_mshrs            0                       # number of times access was blocked (Count)
system.cpu.itb_walker_cache.blockedCauses::no_targets            0                       # number of times access was blocked (Count)
system.cpu.itb_walker_cache.avgBlocked::no_mshrs          nan                       # average number of cycles each access was blocked ((Cycle/Count))
system.cpu.itb_walker_cache.avgBlocked::no_targets          nan                       # average number of cycles each access was blocked ((Cycle/Count))
system.cpu.itb_walker_cache.replacements            0                       # number of replacements (Count)
system.cpu.itb_walker_cache.power_state.pwrStateResidencyTicks::UNDEFINED 993370560500                       # Cumulative time (in ticks) in various power states (Tick)
system.cpu.itb_walker_cache.tags.tagsInUse            0                       # Average ticks per tags in use ((Tick/Count))
system.cpu.itb_walker_cache.tags.totalRefs            0                       # Total number of references to valid blocks. (Count)
system.cpu.itb_walker_cache.tags.sampledRefs            0                       # Sample count of references to valid blocks. (Count)
system.cpu.itb_walker_cache.tags.avgRefs          nan                       # Average number of references to valid blocks. ((Count/Count))
system.cpu.itb_walker_cache.tags.warmupTick            0                       # The tick when the warmup percentage was hit. (Tick)
system.cpu.itb_walker_cache.tags.tagAccesses            0                       # Number of tag accesses (Count)
system.cpu.itb_walker_cache.tags.dataAccesses            0                       # Number of data accesses (Count)
system.cpu.itb_walker_cache.tags.power_state.pwrStateResidencyTicks::UNDEFINED 993370560500                       # Cumulative time (in ticks) in various power states (Tick)
system.cpu.mmu.dtb.rdAccesses                81342075                       # TLB accesses on read requests (Count)
system.cpu.mmu.dtb.wrAccesses                14432332                       # TLB accesses on write requests (Count)
system.cpu.mmu.dtb.rdMisses                    332200                       # TLB misses on read requests (Count)
system.cpu.mmu.dtb.wrMisses                      1563                       # TLB misses on write requests (Count)
system.cpu.mmu.dtb.walker.power_state.pwrStateResidencyTicks::UNDEFINED 993370560500                       # Cumulative time (in ticks) in various power states (Tick)
system.cpu.mmu.itb.rdAccesses                       0                       # TLB accesses on read requests (Count)
system.cpu.mmu.itb.wrAccesses               845307581                       # TLB accesses on write requests (Count)
system.cpu.mmu.itb.rdMisses                         0                       # TLB misses on read requests (Count)
system.cpu.mmu.itb.wrMisses                       197                       # TLB misses on write requests (Count)
system.cpu.mmu.itb.walker.power_state.pwrStateResidencyTicks::UNDEFINED 993370560500                       # Cumulative time (in ticks) in various power states (Tick)
system.cpu.power_state.pwrStateResidencyTicks::ON 993370560500                       # Cumulative time (in ticks) in various power states (Tick)
system.cpu.thread_0.numInsts                        0                       # Number of Instructions committed (Count)
system.cpu.thread_0.numOps                          0                       # Number of Ops committed (Count)
system.cpu.thread_0.numMemRefs                      0                       # Number of Memory References (Count)
system.cpu.workload.numSyscalls                   179                       # Number of system calls (Count)
system.cpu_clk_domain.clock                       500                       # Clock period in ticks (Tick)
system.cpu_voltage_domain.voltage                   1                       # Voltage in Volts (Volt)
system.l2.demandHits::cpu.inst                 372866                       # number of demand (read+write) hits (Count)
system.l2.demandHits::cpu.data                3463531                       # number of demand (read+write) hits (Count)
system.l2.demandHits::total                   3836397                       # number of demand (read+write) hits (Count)
system.l2.overallHits::cpu.inst                372866                       # number of overall hits (Count)
system.l2.overallHits::cpu.data               3463531                       # number of overall hits (Count)
system.l2.overallHits::total                  3836397                       # number of overall hits (Count)
system.l2.demandMisses::cpu.inst                 1872                       # number of demand (read+write) misses (Count)
system.l2.demandMisses::cpu.data                71361                       # number of demand (read+write) misses (Count)
system.l2.demandMisses::total                   73233                       # number of demand (read+write) misses (Count)
system.l2.overallMisses::cpu.inst                1872                       # number of overall misses (Count)
system.l2.overallMisses::cpu.data               71361                       # number of overall misses (Count)
system.l2.overallMisses::total                  73233                       # number of overall misses (Count)
system.l2.demandMissLatency::cpu.inst       148758000                       # number of demand (read+write) miss ticks (Tick)
system.l2.demandMissLatency::cpu.data      5953065500                       # number of demand (read+write) miss ticks (Tick)
system.l2.demandMissLatency::total         6101823500                       # number of demand (read+write) miss ticks (Tick)
system.l2.overallMissLatency::cpu.inst      148758000                       # number of overall miss ticks (Tick)
system.l2.overallMissLatency::cpu.data     5953065500                       # number of overall miss ticks (Tick)
system.l2.overallMissLatency::total        6101823500                       # number of overall miss ticks (Tick)
system.l2.demandAccesses::cpu.inst             374738                       # number of demand (read+write) accesses (Count)
system.l2.demandAccesses::cpu.data            3534892                       # number of demand (read+write) accesses (Count)
system.l2.demandAccesses::total               3909630                       # number of demand (read+write) accesses (Count)
system.l2.overallAccesses::cpu.inst            374738                       # number of overall (read+write) accesses (Count)
system.l2.overallAccesses::cpu.data           3534892                       # number of overall (read+write) accesses (Count)
system.l2.overallAccesses::total              3909630                       # number of overall (read+write) accesses (Count)
system.l2.demandMissRate::cpu.inst           0.004995                       # miss rate for demand accesses (Ratio)
system.l2.demandMissRate::cpu.data           0.020188                       # miss rate for demand accesses (Ratio)
system.l2.demandMissRate::total              0.018731                       # miss rate for demand accesses (Ratio)
system.l2.overallMissRate::cpu.inst          0.004995                       # miss rate for overall accesses (Ratio)
system.l2.overallMissRate::cpu.data          0.020188                       # miss rate for overall accesses (Ratio)
system.l2.overallMissRate::total             0.018731                       # miss rate for overall accesses (Ratio)
system.l2.demandAvgMissLatency::cpu.inst 79464.743590                       # average overall miss latency in ticks ((Tick/Count))
system.l2.demandAvgMissLatency::cpu.data 83421.834055                       # average overall miss latency in ticks ((Tick/Count))
system.l2.demandAvgMissLatency::total    83320.681933                       # average overall miss latency in ticks ((Tick/Count))
system.l2.overallAvgMissLatency::cpu.inst 79464.743590                       # average overall miss latency ((Tick/Count))
system.l2.overallAvgMissLatency::cpu.data 83421.834055                       # average overall miss latency ((Tick/Count))
system.l2.overallAvgMissLatency::total   83320.681933                       # average overall miss latency ((Tick/Count))
system.l2.blockedCycles::no_mshrs                   0                       # number of cycles access was blocked (Cycle)
system.l2.blockedCycles::no_targets                 0                       # number of cycles access was blocked (Cycle)
system.l2.blockedCauses::no_mshrs                   0                       # number of times access was blocked (Count)
system.l2.blockedCauses::no_targets                 0                       # number of times access was blocked (Count)
system.l2.avgBlocked::no_mshrs                    nan                       # average number of cycles each access was blocked ((Cycle/Count))
system.l2.avgBlocked::no_targets                  nan                       # average number of cycles each access was blocked ((Cycle/Count))
system.l2.writebacks::writebacks                53609                       # number of writebacks (Count)
system.l2.writebacks::total                     53609                       # number of writebacks (Count)
system.l2.demandMshrMisses::cpu.inst             1872                       # number of demand (read+write) MSHR misses (Count)
system.l2.demandMshrMisses::cpu.data            71361                       # number of demand (read+write) MSHR misses (Count)
system.l2.demandMshrMisses::total               73233                       # number of demand (read+write) MSHR misses (Count)
system.l2.overallMshrMisses::cpu.inst            1872                       # number of overall MSHR misses (Count)
system.l2.overallMshrMisses::cpu.data           71361                       # number of overall MSHR misses (Count)
system.l2.overallMshrMisses::total              73233                       # number of overall MSHR misses (Count)
system.l2.demandMshrMissLatency::cpu.inst    130038000                       # number of demand (read+write) MSHR miss ticks (Tick)
system.l2.demandMshrMissLatency::cpu.data   5239455500                       # number of demand (read+write) MSHR miss ticks (Tick)
system.l2.demandMshrMissLatency::total     5369493500                       # number of demand (read+write) MSHR miss ticks (Tick)
system.l2.overallMshrMissLatency::cpu.inst    130038000                       # number of overall MSHR miss ticks (Tick)
system.l2.overallMshrMissLatency::cpu.data   5239455500                       # number of overall MSHR miss ticks (Tick)
system.l2.overallMshrMissLatency::total    5369493500                       # number of overall MSHR miss ticks (Tick)
system.l2.demandMshrMissRate::cpu.inst       0.004995                       # mshr miss ratio for demand accesses (Ratio)
system.l2.demandMshrMissRate::cpu.data       0.020188                       # mshr miss ratio for demand accesses (Ratio)
system.l2.demandMshrMissRate::total          0.018731                       # mshr miss ratio for demand accesses (Ratio)
system.l2.overallMshrMissRate::cpu.inst      0.004995                       # mshr miss ratio for overall accesses (Ratio)
system.l2.overallMshrMissRate::cpu.data      0.020188                       # mshr miss ratio for overall accesses (Ratio)
system.l2.overallMshrMissRate::total         0.018731                       # mshr miss ratio for overall accesses (Ratio)
system.l2.demandAvgMshrMissLatency::cpu.inst 69464.743590                       # average overall mshr miss latency ((Tick/Count))
system.l2.demandAvgMshrMissLatency::cpu.data 73421.834055                       # average overall mshr miss latency ((Tick/Count))
system.l2.demandAvgMshrMissLatency::total 73320.681933                       # average overall mshr miss latency ((Tick/Count))
system.l2.overallAvgMshrMissLatency::cpu.inst 69464.743590                       # average overall mshr miss latency ((Tick/Count))
system.l2.overallAvgMshrMissLatency::cpu.data 73421.834055                       # average overall mshr miss latency ((Tick/Count))
system.l2.overallAvgMshrMissLatency::total 73320.681933                       # average overall mshr miss latency ((Tick/Count))
system.l2.replacements                          69768                       # number of replacements (Count)
system.l2.CleanEvict.mshrMisses::writebacks           74                       # number of CleanEvict MSHR misses (Count)
system.l2.CleanEvict.mshrMisses::total             74                       # number of CleanEvict MSHR misses (Count)
system.l2.CleanEvict.mshrMissRate::writebacks          inf                       # mshr miss rate for CleanEvict accesses (Ratio)
system.l2.CleanEvict.mshrMissRate::total          inf                       # mshr miss rate for CleanEvict accesses (Ratio)
system.l2.ReadCleanReq.hits::cpu.inst          372866                       # number of ReadCleanReq hits (Count)
system.l2.ReadCleanReq.hits::total             372866                       # number of ReadCleanReq hits (Count)
system.l2.ReadCleanReq.misses::cpu.inst          1872                       # number of ReadCleanReq misses (Count)
system.l2.ReadCleanReq.misses::total             1872                       # number of ReadCleanReq misses (Count)
system.l2.ReadCleanReq.missLatency::cpu.inst    148758000                       # number of ReadCleanReq miss ticks (Tick)
system.l2.ReadCleanReq.missLatency::total    148758000                       # number of ReadCleanReq miss ticks (Tick)
system.l2.ReadCleanReq.accesses::cpu.inst       374738                       # number of ReadCleanReq accesses(hits+misses) (Count)
system.l2.ReadCleanReq.accesses::total         374738                       # number of ReadCleanReq accesses(hits+misses) (Count)
system.l2.ReadCleanReq.missRate::cpu.inst     0.004995                       # miss rate for ReadCleanReq accesses (Ratio)
system.l2.ReadCleanReq.missRate::total       0.004995                       # miss rate for ReadCleanReq accesses (Ratio)
system.l2.ReadCleanReq.avgMissLatency::cpu.inst 79464.743590                       # average ReadCleanReq miss latency ((Tick/Count))
system.l2.ReadCleanReq.avgMissLatency::total 79464.743590                       # average ReadCleanReq miss latency ((Tick/Count))
system.l2.ReadCleanReq.mshrMisses::cpu.inst         1872                       # number of ReadCleanReq MSHR misses (Count)
system.l2.ReadCleanReq.mshrMisses::total         1872                       # number of ReadCleanReq MSHR misses (Count)
system.l2.ReadCleanReq.mshrMissLatency::cpu.inst    130038000                       # number of ReadCleanReq MSHR miss ticks (Tick)
system.l2.ReadCleanReq.mshrMissLatency::total    130038000                       # number of ReadCleanReq MSHR miss ticks (Tick)
system.l2.ReadCleanReq.mshrMissRate::cpu.inst     0.004995                       # mshr miss rate for ReadCleanReq accesses (Ratio)
system.l2.ReadCleanReq.mshrMissRate::total     0.004995                       # mshr miss rate for ReadCleanReq accesses (Ratio)
system.l2.ReadCleanReq.avgMshrMissLatency::cpu.inst 69464.743590                       # average ReadCleanReq mshr miss latency ((Tick/Count))
system.l2.ReadCleanReq.avgMshrMissLatency::total 69464.743590                       # average ReadCleanReq mshr miss latency ((Tick/Count))
system.l2.ReadExReq.hits::cpu.data              93145                       # number of ReadExReq hits (Count)
system.l2.ReadExReq.hits::total                 93145                       # number of ReadExReq hits (Count)
system.l2.ReadExReq.misses::cpu.data            46380                       # number of ReadExReq misses (Count)
system.l2.ReadExReq.misses::total               46380                       # number of ReadExReq misses (Count)
system.l2.ReadExReq.missLatency::cpu.data   3873712500                       # number of ReadExReq miss ticks (Tick)
system.l2.ReadExReq.missLatency::total     3873712500                       # number of ReadExReq miss ticks (Tick)
system.l2.ReadExReq.accesses::cpu.data         139525                       # number of ReadExReq accesses(hits+misses) (Count)
system.l2.ReadExReq.accesses::total            139525                       # number of ReadExReq accesses(hits+misses) (Count)
system.l2.ReadExReq.missRate::cpu.data       0.332414                       # miss rate for ReadExReq accesses (Ratio)
system.l2.ReadExReq.missRate::total          0.332414                       # miss rate for ReadExReq accesses (Ratio)
system.l2.ReadExReq.avgMissLatency::cpu.data 83521.183700                       # average ReadExReq miss latency ((Tick/Count))
system.l2.ReadExReq.avgMissLatency::total 83521.183700                       # average ReadExReq miss latency ((Tick/Count))
system.l2.ReadExReq.mshrMisses::cpu.data        46380                       # number of ReadExReq MSHR misses (Count)
system.l2.ReadExReq.mshrMisses::total           46380                       # number of ReadExReq MSHR misses (Count)
system.l2.ReadExReq.mshrMissLatency::cpu.data   3409912500                       # number of ReadExReq MSHR miss ticks (Tick)
system.l2.ReadExReq.mshrMissLatency::total   3409912500                       # number of ReadExReq MSHR miss ticks (Tick)
system.l2.ReadExReq.mshrMissRate::cpu.data     0.332414                       # mshr miss rate for ReadExReq accesses (Ratio)
system.l2.ReadExReq.mshrMissRate::total      0.332414                       # mshr miss rate for ReadExReq accesses (Ratio)
system.l2.ReadExReq.avgMshrMissLatency::cpu.data 73521.183700                       # average ReadExReq mshr miss latency ((Tick/Count))
system.l2.ReadExReq.avgMshrMissLatency::total 73521.183700                       # average ReadExReq mshr miss latency ((Tick/Count))
system.l2.ReadSharedReq.hits::cpu.data        3370386                       # number of ReadSharedReq hits (Count)
system.l2.ReadSharedReq.hits::total           3370386                       # number of ReadSharedReq hits (Count)
system.l2.ReadSharedReq.misses::cpu.data        24981                       # number of ReadSharedReq misses (Count)
system.l2.ReadSharedReq.misses::total           24981                       # number of ReadSharedReq misses (Count)
system.l2.ReadSharedReq.missLatency::cpu.data   2079353000                       # number of ReadSharedReq miss ticks (Tick)
system.l2.ReadSharedReq.missLatency::total   2079353000                       # number of ReadSharedReq miss ticks (Tick)
system.l2.ReadSharedReq.accesses::cpu.data      3395367                       # number of ReadSharedReq accesses(hits+misses) (Count)
system.l2.ReadSharedReq.accesses::total       3395367                       # number of ReadSharedReq accesses(hits+misses) (Count)
system.l2.ReadSharedReq.missRate::cpu.data     0.007357                       # miss rate for ReadSharedReq accesses (Ratio)
system.l2.ReadSharedReq.missRate::total      0.007357                       # miss rate for ReadSharedReq accesses (Ratio)
system.l2.ReadSharedReq.avgMissLatency::cpu.data 83237.380409                       # average ReadSharedReq miss latency ((Tick/Count))
system.l2.ReadSharedReq.avgMissLatency::total 83237.380409                       # average ReadSharedReq miss latency ((Tick/Count))
system.l2.ReadSharedReq.mshrMisses::cpu.data        24981                       # number of ReadSharedReq MSHR misses (Count)
system.l2.ReadSharedReq.mshrMisses::total        24981                       # number of ReadSharedReq MSHR misses (Count)
system.l2.ReadSharedReq.mshrMissLatency::cpu.data   1829543000                       # number of ReadSharedReq MSHR miss ticks (Tick)
system.l2.ReadSharedReq.mshrMissLatency::total   1829543000                       # number of ReadSharedReq MSHR miss ticks (Tick)
system.l2.ReadSharedReq.mshrMissRate::cpu.data     0.007357                       # mshr miss rate for ReadSharedReq accesses (Ratio)
system.l2.ReadSharedReq.mshrMissRate::total     0.007357                       # mshr miss rate for ReadSharedReq accesses (Ratio)
system.l2.ReadSharedReq.avgMshrMissLatency::cpu.data 73237.380409                       # average ReadSharedReq mshr miss latency ((Tick/Count))
system.l2.ReadSharedReq.avgMshrMissLatency::total 73237.380409                       # average ReadSharedReq mshr miss latency ((Tick/Count))
system.l2.WritebackClean.hits::writebacks       374482                       # number of WritebackClean hits (Count)
system.l2.WritebackClean.hits::total           374482                       # number of WritebackClean hits (Count)
system.l2.WritebackClean.accesses::writebacks       374482                       # number of WritebackClean accesses(hits+misses) (Count)
system.l2.WritebackClean.accesses::total       374482                       # number of WritebackClean accesses(hits+misses) (Count)
system.l2.WritebackDirty.hits::writebacks      2063646                       # number of WritebackDirty hits (Count)
system.l2.WritebackDirty.hits::total          2063646                       # number of WritebackDirty hits (Count)
system.l2.WritebackDirty.accesses::writebacks      2063646                       # number of WritebackDirty accesses(hits+misses) (Count)
system.l2.WritebackDirty.accesses::total      2063646                       # number of WritebackDirty accesses(hits+misses) (Count)
system.l2.power_state.pwrStateResidencyTicks::UNDEFINED 993370560500                       # Cumulative time (in ticks) in various power states (Tick)
system.l2.tags.tagsInUse                  4093.501984                       # Average ticks per tags in use ((Tick/Count))
system.l2.tags.totalRefs                      7818674                       # Total number of references to valid blocks. (Count)
system.l2.tags.sampledRefs                      73864                       # Sample count of references to valid blocks. (Count)
system.l2.tags.avgRefs                     105.852296                       # Average number of references to valid blocks. ((Count/Count))
system.l2.tags.warmupTick                       77000                       # The tick when the warmup percentage was hit. (Tick)
system.l2.tags.occupancies::writebacks      33.067029                       # Average occupied blocks per tick, per requestor ((Count/Tick))
system.l2.tags.occupancies::cpu.inst        26.801719                       # Average occupied blocks per tick, per requestor ((Count/Tick))
system.l2.tags.occupancies::cpu.data      4033.633236                       # Average occupied blocks per tick, per requestor ((Count/Tick))
system.l2.tags.avgOccs::writebacks           0.008073                       # Average percentage of cache occupancy ((Ratio/Tick))
system.l2.tags.avgOccs::cpu.inst             0.006543                       # Average percentage of cache occupancy ((Ratio/Tick))
system.l2.tags.avgOccs::cpu.data             0.984774                       # Average percentage of cache occupancy ((Ratio/Tick))
system.l2.tags.avgOccs::total                0.999390                       # Average percentage of cache occupancy ((Ratio/Tick))
system.l2.tags.occupanciesTaskId::1024           4096                       # Occupied blocks per task id (Count)
system.l2.tags.ageTaskId_1024::0                  106                       # Occupied blocks per task id, per block age (Count)
system.l2.tags.ageTaskId_1024::1                  408                       # Occupied blocks per task id, per block age (Count)
system.l2.tags.ageTaskId_1024::2                 2946                       # Occupied blocks per task id, per block age (Count)
system.l2.tags.ageTaskId_1024::3                  418                       # Occupied blocks per task id, per block age (Count)
system.l2.tags.ageTaskId_1024::4                  218                       # Occupied blocks per task id, per block age (Count)
system.l2.tags.ratioOccsTaskId::1024                1                       # Ratio of occupied blocks and all blocks, per task id (Ratio)
system.l2.tags.tagAccesses                   62623848                       # Number of tag accesses (Count)
system.l2.tags.dataAccesses                  62623848                       # Number of data accesses (Count)
system.l2.tags.power_state.pwrStateResidencyTicks::UNDEFINED 993370560500                       # Cumulative time (in ticks) in various power states (Tick)
system.mem_ctrls.avgPriority_writebacks::samples     53609.00                       # Average QoS priority value for accepted requests (Count)
system.mem_ctrls.avgPriority_cpu.inst::samples      1872.00                       # Average QoS priority value for accepted requests (Count)
system.mem_ctrls.avgPriority_cpu.data::samples     70523.00                       # Average QoS priority value for accepted requests (Count)
system.mem_ctrls.priorityMinLatency      0.000000018750                       # per QoS priority minimum request to response latency (Second)
system.mem_ctrls.priorityMaxLatency      0.014285932500                       # per QoS priority maximum request to response latency (Second)
system.mem_ctrls.numReadWriteTurnArounds         3065                       # Number of turnarounds from READ to WRITE (Count)
system.mem_ctrls.numWriteReadTurnArounds         3065                       # Number of turnarounds from WRITE to READ (Count)
system.mem_ctrls.numStayReadState              452496                       # Number of times bus staying in READ state (Count)
system.mem_ctrls.numStayWriteState              50563                       # Number of times bus staying in WRITE state (Count)
system.mem_ctrls.readReqs                       73233                       # Number of read requests accepted (Count)
system.mem_ctrls.writeReqs                      53609                       # Number of write requests accepted (Count)
system.mem_ctrls.readBursts                     73233                       # Number of controller read bursts, including those serviced by the write queue (Count)
system.mem_ctrls.writeBursts                    53609                       # Number of controller write bursts, including those merged in the write queue (Count)
system.mem_ctrls.servicedByWrQ                    838                       # Number of controller read bursts serviced by the write queue (Count)
system.mem_ctrls.mergedWrBursts                     0                       # Number of controller write bursts merged with an existing one (Count)
system.mem_ctrls.neitherReadNorWriteReqs            0                       # Number of requests that are neither read nor write (Count)
system.mem_ctrls.avgRdQLen                       1.00                       # Average read queue length when enqueuing ((Count/Tick))
system.mem_ctrls.avgWrQLen                      24.45                       # Average write queue length when enqueuing ((Count/Tick))
system.mem_ctrls.numRdRetry                         0                       # Number of times read queue was full causing retry (Count)
system.mem_ctrls.numWrRetry                         0                       # Number of times write queue was full causing retry (Count)
system.mem_ctrls.readPktSize::0                     0                       # Read request sizes (log2) (Count)
system.mem_ctrls.readPktSize::1                     0                       # Read request sizes (log2) (Count)
system.mem_ctrls.readPktSize::2                     0                       # Read request sizes (log2) (Count)
system.mem_ctrls.readPktSize::3                     0                       # Read request sizes (log2) (Count)
system.mem_ctrls.readPktSize::4                     0                       # Read request sizes (log2) (Count)
system.mem_ctrls.readPktSize::5                     0                       # Read request sizes (log2) (Count)
system.mem_ctrls.readPktSize::6                 73233                       # Read request sizes (log2) (Count)
system.mem_ctrls.writePktSize::0                    0                       # Write request sizes (log2) (Count)
system.mem_ctrls.writePktSize::1                    0                       # Write request sizes (log2) (Count)
system.mem_ctrls.writePktSize::2                    0                       # Write request sizes (log2) (Count)
system.mem_ctrls.writePktSize::3                    0                       # Write request sizes (log2) (Count)
system.mem_ctrls.writePktSize::4                    0                       # Write request sizes (log2) (Count)
system.mem_ctrls.writePktSize::5                    0                       # Write request sizes (log2) (Count)
system.mem_ctrls.writePktSize::6                53609                       # Write request sizes (log2) (Count)
system.mem_ctrls.rdQLenPdf::0                   72394                       # What read queue length does an incoming req see (Count)
system.mem_ctrls.rdQLenPdf::1                       1                       # What read queue length does an incoming req see (Count)
system.mem_ctrls.rdQLenPdf::2                       0                       # What read queue length does an incoming req see (Count)
system.mem_ctrls.rdQLenPdf::3                       0                       # What read queue length does an incoming req see (Count)
system.mem_ctrls.rdQLenPdf::4                       0                       # What read queue length does an incoming req see (Count)
system.mem_ctrls.rdQLenPdf::5                       0                       # What read queue length does an incoming req see (Count)
system.mem_ctrls.rdQLenPdf::6                       0                       # What read queue length does an incoming req see (Count)
system.mem_ctrls.rdQLenPdf::7                       0                       # What read queue length does an incoming req see (Count)
system.mem_ctrls.rdQLenPdf::8                       0                       # What read queue length does an incoming req see (Count)
system.mem_ctrls.rdQLenPdf::9                       0                       # What read queue length does an incoming req see (Count)
system.mem_ctrls.rdQLenPdf::10                      0                       # What read queue length does an incoming req see (Count)
system.mem_ctrls.rdQLenPdf::11                      0                       # What read queue length does an incoming req see (Count)
system.mem_ctrls.rdQLenPdf::12                      0                       # What read queue length does an incoming req see (Count)
system.mem_ctrls.rdQLenPdf::13                      0                       # What read queue length does an incoming req see (Count)
system.mem_ctrls.rdQLenPdf::14                      0                       # What read queue length does an incoming req see (Count)
system.mem_ctrls.rdQLenPdf::15                      0                       # What read queue length does an incoming req see (Count)
[...]
system.mem_ctrls.dram.perBankWrBursts::12         3492                       # Per bank write bursts (Count)
system.mem_ctrls.dram.perBankWrBursts::13         3148                       # Per bank write bursts (Count)
system.mem_ctrls.dram.perBankWrBursts::14         3144                       # Per bank write bursts (Count)
system.mem_ctrls.dram.perBankWrBursts::15         3626                       # Per bank write bursts (Count)
system.mem_ctrls.dram.totQLat              1015750500                       # Total ticks spent queuing (Tick)
system.mem_ctrls.dram.totBusLat             361975000                       # Total ticks spent in databus transfers (Tick)
system.mem_ctrls.dram.totMemAccLat         2373156750                       # Total ticks spent from burst creation until serviced by the DRAM (Tick)
system.mem_ctrls.dram.avgQLat                14030.67                       # Average queueing delay per DRAM burst ((Tick/Count))
system.mem_ctrls.dram.avgBusLat               5000.00                       # Average bus latency per DRAM burst ((Tick/Count))
system.mem_ctrls.dram.avgMemAccLat           32780.67                       # Average memory access latency per DRAM burst ((Tick/Count))
system.mem_ctrls.dram.readRowHits               28296                       # Number of row buffer hits during reads (Count)
system.mem_ctrls.dram.writeRowHits              36394                       # Number of row buffer hits during writes (Count)
system.mem_ctrls.dram.readRowHitRate            39.09                       # Row buffer hit rate for reads (Ratio)
system.mem_ctrls.dram.writeRowHitRate           67.92                       # Row buffer hit rate for writes (Ratio)
system.mem_ctrls.dram.bytesPerActivate::samples        61288                       # Bytes accessed per row activation (Byte)
system.mem_ctrls.dram.bytesPerActivate::mean   131.552539                       # Bytes accessed per row activation (Byte)
system.mem_ctrls.dram.bytesPerActivate::gmean    89.960026                       # Bytes accessed per row activation (Byte)
system.mem_ctrls.dram.bytesPerActivate::stdev   181.120315                       # Bytes accessed per row activation (Byte)
system.mem_ctrls.dram.bytesPerActivate::0-127        46434     75.76%     75.76% # Bytes accessed per row activation (Byte)
system.mem_ctrls.dram.bytesPerActivate::128-255         7683     12.54%     88.30% # Bytes accessed per row activation (Byte)
system.mem_ctrls.dram.bytesPerActivate::256-383         2360      3.85%     92.15% # Bytes accessed per row activation (Byte)
system.mem_ctrls.dram.bytesPerActivate::384-511         1360      2.22%     94.37% # Bytes accessed per row activation (Byte)
system.mem_ctrls.dram.bytesPerActivate::512-639          863      1.41%     95.78% # Bytes accessed per row activation (Byte)
system.mem_ctrls.dram.bytesPerActivate::640-767          636      1.04%     96.82% # Bytes accessed per row activation (Byte)
system.mem_ctrls.dram.bytesPerActivate::768-895          534      0.87%     97.69% # Bytes accessed per row activation (Byte)
system.mem_ctrls.dram.bytesPerActivate::896-1023          474      0.77%     98.46% # Bytes accessed per row activation (Byte)
system.mem_ctrls.dram.bytesPerActivate::1024-1151          944      1.54%    100.00% # Bytes accessed per row activation (Byte)
system.mem_ctrls.dram.bytesPerActivate::total        61288                       # Bytes accessed per row activation (Byte)
system.mem_ctrls.dram.dramBytesRead           4633280                       # Total bytes read (Byte)
system.mem_ctrls.dram.dramBytesWritten        3429440                       # Total bytes written (Byte)
system.mem_ctrls.dram.avgRdBW                4.664201                       # Average DRAM read bandwidth in MiBytes/s ((Byte/Second))
system.mem_ctrls.dram.avgWrBW                3.452327                       # Average DRAM write bandwidth in MiBytes/s ((Byte/Second))
system.mem_ctrls.dram.peakBW                 12800.00                       # Theoretical peak bandwidth in MiByte/s ((Byte/Second))
system.mem_ctrls.dram.busUtil                    0.06                       # Data bus utilization in percentage (Ratio)
system.mem_ctrls.dram.busUtilRead                0.04                       # Data bus utilization in percentage for reads (Ratio)
system.mem_ctrls.dram.busUtilWrite               0.03                       # Data bus utilization in percentage for writes (Ratio)
system.mem_ctrls.dram.pageHitRate               51.35                       # Row buffer hit rate, read and write combined (Ratio)
system.mem_ctrls.dram.power_state.pwrStateResidencyTicks::UNDEFINED 993370560500                       # Cumulative time (in ticks) in various power states (Tick)
system.mem_ctrls.dram.rank0.actEnergy       220326120                       # Energy for activate commands per rank (pJ) (Joule)
system.mem_ctrls.dram.rank0.preEnergy       117102315                       # Energy for precharge commands per rank (pJ) (Joule)
system.mem_ctrls.dram.rank0.readEnergy      261716700                       # Energy for read commands per rank (pJ) (Joule)
system.mem_ctrls.dram.rank0.writeEnergy     139953420                       # Energy for write commands per rank (pJ) (Joule)
system.mem_ctrls.dram.rank0.refreshEnergy 78415771200.000015                       # Energy for refresh commands per rank (pJ) (Joule)
system.mem_ctrls.dram.rank0.actBackEnergy  48854805450                       # Energy for active background per rank (pJ) (Joule)
system.mem_ctrls.dram.rank0.preBackEnergy 340313406720                       # Energy for precharge background per rank (pJ) (Joule)
system.mem_ctrls.dram.rank0.actPowerDownEnergy            0                       # Energy for active power-down per rank (pJ) (Joule)
system.mem_ctrls.dram.rank0.prePowerDownEnergy            0                       # Energy for precharge power-down per rank (pJ) (Joule)
system.mem_ctrls.dram.rank0.selfRefreshEnergy            0                       # Energy for self refresh per rank (pJ) (Joule)
system.mem_ctrls.dram.rank0.totalEnergy  468323081925                       # Total energy per rank (pJ) (Joule)
system.mem_ctrls.dram.rank0.averagePower   471.448521                       # Core power per rank (mW) (Watt)
system.mem_ctrls.dram.rank0.totalIdleTime            0                       # Total Idle time Per DRAM Rank (Tick)
system.mem_ctrls.dram.rank0.pwrStateTime::IDLE 884209936500                       # Time in different power states (Tick)
system.mem_ctrls.dram.rank0.pwrStateTime::REF  33170800000                       # Time in different power states (Tick)
system.mem_ctrls.dram.rank0.pwrStateTime::SREF            0                       # Time in different power states (Tick)
system.mem_ctrls.dram.rank0.pwrStateTime::PRE_PDN            0                       # Time in different power states (Tick)
system.mem_ctrls.dram.rank0.pwrStateTime::ACT  75989824000                       # Time in different power states (Tick)
system.mem_ctrls.dram.rank0.pwrStateTime::ACT_PDN            0                       # Time in different power states (Tick)
system.mem_ctrls.dram.rank1.actEnergy       217284480                       # Energy for activate commands per rank (pJ) (Joule)
system.mem_ctrls.dram.rank1.preEnergy       115485645                       # Energy for precharge commands per rank (pJ) (Joule)
system.mem_ctrls.dram.rank1.readEnergy      255183600                       # Energy for read commands per rank (pJ) (Joule)
system.mem_ctrls.dram.rank1.writeEnergy     139760280                       # Energy for write commands per rank (pJ) (Joule)
system.mem_ctrls.dram.rank1.refreshEnergy 78415771200.000015                       # Energy for refresh commands per rank (pJ) (Joule)
system.mem_ctrls.dram.rank1.actBackEnergy  49092280560                       # Energy for active background per rank (pJ) (Joule)
system.mem_ctrls.dram.rank1.preBackEnergy 340113427680                       # Energy for precharge background per rank (pJ) (Joule)
system.mem_ctrls.dram.rank1.actPowerDownEnergy            0                       # Energy for active power-down per rank (pJ) (Joule)
system.mem_ctrls.dram.rank1.prePowerDownEnergy            0                       # Energy for precharge power-down per rank (pJ) (Joule)
system.mem_ctrls.dram.rank1.selfRefreshEnergy            0                       # Energy for self refresh per rank (pJ) (Joule)
system.mem_ctrls.dram.rank1.totalEnergy  468349193445                       # Total energy per rank (pJ) (Joule)
system.mem_ctrls.dram.rank1.averagePower   471.474807                       # Core power per rank (mW) (Watt)
system.mem_ctrls.dram.rank1.totalIdleTime            0                       # Total Idle time Per DRAM Rank (Tick)
system.mem_ctrls.dram.rank1.pwrStateTime::IDLE 883685804500                       # Time in different power states (Tick)
system.mem_ctrls.dram.rank1.pwrStateTime::REF  33170800000                       # Time in different power states (Tick)
system.mem_ctrls.dram.rank1.pwrStateTime::SREF            0                       # Time in different power states (Tick)
system.mem_ctrls.dram.rank1.pwrStateTime::PRE_PDN            0                       # Time in different power states (Tick)
system.mem_ctrls.dram.rank1.pwrStateTime::ACT  76513956000                       # Time in different power states (Tick)
system.mem_ctrls.dram.rank1.pwrStateTime::ACT_PDN            0                       # Time in different power states (Tick)
system.mem_ctrls.power_state.pwrStateResidencyTicks::UNDEFINED 993370560500                       # Cumulative time (in ticks) in various power states (Tick)
system.membus.transDist::ReadResp               26853                       # Transaction distribution (Count)
system.membus.transDist::WritebackDirty         53609                       # Transaction distribution (Count)
system.membus.transDist::CleanEvict             15478                       # Transaction distribution (Count)
system.membus.transDist::ReadExReq              46380                       # Transaction distribution (Count)
system.membus.transDist::ReadExResp             46380                       # Transaction distribution (Count)
system.membus.transDist::ReadSharedReq          26853                       # Transaction distribution (Count)
system.membus.pktCount_system.l2.mem_side_port::system.mem_ctrls.port       215553                       # Packet count per connected requestor and responder (Count)
system.membus.pktCount_system.l2.mem_side_port::total       215553                       # Packet count per connected requestor and responder (Count)
system.membus.pktCount::total                  215553                       # Packet count per connected requestor and responder (Count)
system.membus.pktSize_system.l2.mem_side_port::system.mem_ctrls.port      8117888                       # Cumulative packet size per connected requestor and responder (Byte)
system.membus.pktSize_system.l2.mem_side_port::total      8117888                       # Cumulative packet size per connected requestor and responder (Byte)
system.membus.pktSize::total                  8117888                       # Cumulative packet size per connected requestor and responder (Byte)
system.membus.snoops                                0                       # Total snoops (Count)
system.membus.snoopTraffic                          0                       # Total snoop traffic (Byte)
system.membus.snoopFanout::samples              73233                       # Request fanout histogram (Count)
system.membus.snoopFanout::mean                     0                       # Request fanout histogram (Count)
system.membus.snoopFanout::stdev                    0                       # Request fanout histogram (Count)
system.membus.snoopFanout::underflows               0      0.00%      0.00% # Request fanout histogram (Count)
system.membus.snoopFanout::0                    73233    100.00%    100.00% # Request fanout histogram (Count)
system.membus.snoopFanout::1                        0      0.00%    100.00% # Request fanout histogram (Count)
system.membus.snoopFanout::overflows                0      0.00%    100.00% # Request fanout histogram (Count)
system.membus.snoopFanout::min_value                0                       # Request fanout histogram (Count)
system.membus.snoopFanout::max_value                0                       # Request fanout histogram (Count)
system.membus.snoopFanout::total                73233                       # Request fanout histogram (Count)
system.membus.power_state.pwrStateResidencyTicks::UNDEFINED 993370560500                       # Cumulative time (in ticks) in various power states (Tick)
system.membus.reqLayer2.occupancy           366165000                       # Layer occupancy (ticks) (Tick)
system.membus.reqLayer2.utilization               0.0                       # Layer utilization (Ratio)
system.membus.respLayer1.occupancy          395469500                       # Layer occupancy (ticks) (Tick)
system.membus.respLayer1.utilization              0.0                       # Layer utilization (Ratio)
system.membus.snoop_filter.totRequests         142320                       # Total number of requests made to the snoop filter. (Count)
system.membus.snoop_filter.hitSingleRequests        69087                       # Number of requests hitting in the snoop filter with a single holder of the requested data. (Count)
system.membus.snoop_filter.hitMultiRequests            0                       # Number of requests hitting in the snoop filter with multiple (>1) holders of the requested data. (Count)
system.membus.snoop_filter.totSnoops                0                       # Total number of snoops made to the snoop filter. (Count)
system.membus.snoop_filter.hitSingleSnoops            0                       # Number of snoops hitting in the snoop filter with a single holder of the requested data. (Count)
system.membus.snoop_filter.hitMultiSnoops            0                       # Number of snoops hitting in the snoop filter with multiple (>1) holders of the requested data. (Count)
system.tol2bus.transDist::ReadResp            3770105                       # Transaction distribution (Count)
system.tol2bus.transDist::WritebackDirty      2117255                       # Transaction distribution (Count)
system.tol2bus.transDist::WritebackClean       374482                       # Transaction distribution (Count)
system.tol2bus.transDist::CleanEvict          1487149                       # Transaction distribution (Count)
system.tol2bus.transDist::ReadExReq            139525                       # Transaction distribution (Count)
system.tol2bus.transDist::ReadExResp           139525                       # Transaction distribution (Count)
system.tol2bus.transDist::ReadCleanReq         374738                       # Transaction distribution (Count)
system.tol2bus.transDist::ReadSharedReq       3395367                       # Transaction distribution (Count)
system.tol2bus.pktCount_system.cpu.icache.mem_side_port::system.l2.cpu_side_port      1123958                       # Packet count per connected requestor and responder (Count)
system.tol2bus.pktCount_system.cpu.dcache.mem_side_port::system.l2.cpu_side_port     10604420                       # Packet count per connected requestor and responder (Count)
system.tol2bus.pktCount::total               11728378                       # Packet count per connected requestor and responder (Count)
system.tol2bus.pktSize_system.cpu.icache.mem_side_port::system.l2.cpu_side_port     47950080                       # Cumulative packet size per connected requestor and responder (Byte)
system.tol2bus.pktSize_system.cpu.dcache.mem_side_port::system.l2.cpu_side_port    358306432                       # Cumulative packet size per connected requestor and responder (Byte)
system.tol2bus.pktSize::total               406256512                       # Cumulative packet size per connected requestor and responder (Byte)
system.tol2bus.snoops                           69768                       # Total snoops (Count)
system.tol2bus.snoopTraffic                   3430976                       # Total snoop traffic (Byte)
system.tol2bus.snoopFanout::samples           3979398                       # Request fanout histogram (Count)
system.tol2bus.snoopFanout::mean             0.000190                       # Request fanout histogram (Count)
system.tol2bus.snoopFanout::stdev            0.013773                       # Request fanout histogram (Count)
system.tol2bus.snoopFanout::underflows              0      0.00%      0.00% # Request fanout histogram (Count)
system.tol2bus.snoopFanout::0                 3978643     99.98%     99.98% # Request fanout histogram (Count)
system.tol2bus.snoopFanout::1                     755      0.02%    100.00% # Request fanout histogram (Count)
system.tol2bus.snoopFanout::2                       0      0.00%    100.00% # Request fanout histogram (Count)
system.tol2bus.snoopFanout::3                       0      0.00%    100.00% # Request fanout histogram (Count)
system.tol2bus.snoopFanout::4                       0      0.00%    100.00% # Request fanout histogram (Count)
system.tol2bus.snoopFanout::overflows               0      0.00%    100.00% # Request fanout histogram (Count)
system.tol2bus.snoopFanout::min_value               0                       # Request fanout histogram (Count)
system.tol2bus.snoopFanout::max_value               1                       # Request fanout histogram (Count)
system.tol2bus.snoopFanout::total             3979398                       # Request fanout histogram (Count)
system.tol2bus.power_state.pwrStateResidencyTicks::UNDEFINED 993370560500                       # Cumulative time (in ticks) in various power states (Tick)
system.tol2bus.reqLayer0.occupancy         6347502000                       # Layer occupancy (ticks) (Tick)
system.tol2bus.reqLayer0.utilization              0.0                       # Layer utilization (Ratio)
system.tol2bus.respLayer0.occupancy         562107000                       # Layer occupancy (ticks) (Tick)
system.tol2bus.respLayer0.utilization             0.0                       # Layer utilization (Ratio)
system.tol2bus.respLayer1.occupancy        5302338000                       # Layer occupancy (ticks) (Tick)
system.tol2bus.respLayer1.utilization             0.0                       # Layer utilization (Ratio)
system.tol2bus.snoop_filter.totRequests       7818748                       # Total number of requests made to the snoop filter. (Count)
system.tol2bus.snoop_filter.hitSingleRequests      3909118                       # Number of requests hitting in the snoop filter with a single holder of the requested data. (Count)
system.tol2bus.snoop_filter.hitMultiRequests            0                       # Number of requests hitting in the snoop filter with multiple (>1) holders of the requested data. (Count)
system.tol2bus.snoop_filter.totSnoops             755                       # Total number of snoops made to the snoop filter. (Count)
system.tol2bus.snoop_filter.hitSingleSnoops          755                       # Number of snoops hitting in the snoop filter with a single holder of the requested data. (Count)
system.tol2bus.snoop_filter.hitMultiSnoops            0                       # Number of snoops hitting in the snoop filter with multiple (>1) holders of the requested data. (Count)
system.voltage_domain.voltage                       1                       # Voltage in Volts (Volt)
system.workload.inst.arm                            0                       # number of arm instructions executed (Count)
system.workload.inst.quiesce                        0                       # number of quiesce instructions executed (Count)

---------- End Simulation Statistics   ----------
